# family_boco file written by ICEM CFD by pyd5089 on Fri Dec 01 02:42:37 PM EST 2017
## solver LS-DYNA3D
"FAM10-18"
"CREATED_MATERIAL_2"
"CREATED_MATERIAL_3"
